*----------------------------------------------------------------------
* SPICE Model generated by Murata Manufacturing Co., Ltd.
* Copyright(C) Murata Manufacturing Co., Ltd.
* MURATA P/N : LQG15WZ82NG02
* Property : L = 82[nH]
*----------------------------------------------------------------------
* Applicable Conditions:
*   Frequency Range = 50MHz - 20GHz
*   Temperature = 25 degC
*   DC Bias Current = 0 A
*   Small Signal Operation
*----------------------------------------------------------------------
.SUBCKT LQG15WZ82NG02 port1 port2
C1 port1 port2 3.90e-14
L2 port1 1 9.24e-8
R2 1 port2 7.76e-1
R3 port1 port2 5.49e+4
L4 port1 2 8.35e-7
R4 2 port2 34.4
L5 port1 3 1.60e-6
R5 3 port2 957
L6 port1 4 2.38e-6
R6 4 port2 4.88e+3
L7 port1 5 5.93e-8
C7 5 6 1.04e-14
R7 6 port2 83.3
L8 port1 7 1.22e-8
C8 7 8 1.60e-14
R8 8 port2 48.1
L9 port1 9 2.97e-9
C9 9 10 3.28e-14
R9 10 port2 11.8
L10 port1 11 1.49e-9
C10 11 12 4.47e-14
R10 12 port2 2.34
.ENDS LQG15WZ82NG02
*----------------------------------------------------------------------
