*----------------------------------------------------------------------
* SPICE Model generated by Murata Manufacturing Co., Ltd.
* Copyright(C) Murata Manufacturing Co., Ltd.
* MURATA P/N : LQG18HHR10J00
* Property : L = 100[nH]
*----------------------------------------------------------------------
* Applicable Conditions:
*   Frequency Range = 50MHz - 20GHz
*   Temperature = 25 degC
*   DC Bias Current = 0 A
*   Small Signal Operation
*----------------------------------------------------------------------
.SUBCKT LQG18HHR10J00 port1 port2
C1 port1 port2 1.52e-13
L2 port1 1 1.05e-7
R2 1 port2 1.01
R3 port1 port2 6.38e+4
L4 port1 2 1.63e-6
R4 2 port2 587
L5 port1 3 2.79e-6
R5 3 port2 6.39e+3
L6 port1 4 9.04e-8
C6 4 5 1.56e-14
R6 5 port2 59.6
L7 port1 6 7.63e-8
C7 6 7 5.41e-15
R7 7 port2 122
L8 port1 8 1.42e-8
C8 8 9 1.37e-14
R8 9 port2 63.5
L9 port1 10 6.32e-9
C9 10 11 1.96e-14
R9 11 port2 71.9
L10 port1 12 4.16e-8
C10 12 13 1.54e-15
R10 13 port2 654
.ENDS LQG18HHR10J00
*----------------------------------------------------------------------
