*----------------------------------------------------------------------
* SPICE Model generated by Murata Manufacturing Co., Ltd.
* Copyright(C) Murata Manufacturing Co., Ltd.
* MURATA P/N : LQW18CN85NJ0H
* Property : L = 85[nH]
*----------------------------------------------------------------------
* Applicable Conditions:
*   Frequency Range = 10MHz - 20GHz
*   Temperature = 25 degC
*   DC Bias Current = 0 A
*   Small Signal Operation
*----------------------------------------------------------------------
.SUBCKT LQW18CN85NJ0H port1 port2
C1 port1 port2 4.95e-14
L2 port1 1 8.40e-8
R2 1 port2 4.17e-1
R3 port1 port2 577
L4 port1 2 1.83e-6
R4 2 port2 416
.ENDS LQW18CN85NJ0H
*----------------------------------------------------------------------
